Version 4
SHEET 1 880 680
SYMBOL nmos4 224 160 R0
SYMATTR InstName M1
SYMBOL nmos4 224 160 R0
SYMATTR InstName M2
